
     RDKit          3D

 11 11  0  0  0  0  0  0  0  0999 V2000
   -0.2506    2.4354   -0.0591 O   0  0  0  0  0  0  0  0  0  0  0  0
   -0.1171    1.1838   -0.0288 C   0  0  0  0  0  0  0  0  0  0  0  0
   -1.2913    0.3053    0.0128 C   0  0  0  0  0  0  0  0  0  0  0  0
   -1.1031   -1.0178    0.0440 C   0  0  0  0  0  0  0  0  0  0  0  0
    0.2232   -1.5778    0.0373 N   0  0  0  0  0  0  0  0  0  0  0  0
    1.2937   -0.8377    0.0010 C   0  0  0  0  0  0  0  0  0  0  0  0
    1.1836    0.5904   -0.0342 N   0  0  0  0  0  0  0  0  0  0  0  0
   -2.2919    0.7193    0.0180 H   0  0  0  0  0  0  0  0  0  0  0  0
   -1.9579   -1.6805    0.0749 H   0  0  0  0  0  0  0  0  0  0  0  0
    2.2695   -1.3046   -0.0025 H   0  0  0  0  0  0  0  0  0  0  0  0
    2.0421    1.1844   -0.0633 H   0  0  0  0  0  0  0  0  0  0  0  0
  1  2  2  0
  2  3  1  0
  3  4  2  0
  4  5  1  0
  5  6  2  0
  6  7  1  0
  7  2  1  0
  3  8  1  0
  4  9  1  0
  6 10  1  0
  7 11  1  0
M  END
>  <tautomer smiles>  (1) 
O=c1ccnc[nH]1

>  <Score>  (1) 
0.0

>  <Label>  (1) 
low_energy

$$$$

     RDKit          3D

 11 11  0  0  0  0  0  0  0  0999 V2000
    2.3865   -1.3501    0.0883 O   0  0  0  0  0  0  0  0  0  0  0  0
    1.2515   -0.8077    0.0508 C   0  0  0  0  0  0  0  0  0  0  0  0
    1.1296    0.6567   -0.0159 C   0  0  0  0  0  0  0  0  0  0  0  0
   -0.0888    1.1976   -0.0544 C   0  0  0  0  0  0  0  0  0  0  0  0
   -1.2494    0.3543   -0.0305 N   0  0  0  0  0  0  0  0  0  0  0  0
   -1.1116   -1.0732    0.0347 C   0  0  0  0  0  0  0  0  0  0  0  0
    0.0684   -1.6165    0.0729 N   0  0  0  0  0  0  0  0  0  0  0  0
    2.0113    1.2850   -0.0336 H   0  0  0  0  0  0  0  0  0  0  0  0
   -0.2038    2.2729   -0.1037 H   0  0  0  0  0  0  0  0  0  0  0  0
   -2.2013    0.7820   -0.0608 H   0  0  0  0  0  0  0  0  0  0  0  0
   -1.9925   -1.7009    0.0523 H   0  0  0  0  0  0  0  0  0  0  0  0
  1  2  2  0
  2  3  1  0
  3  4  2  0
  4  5  1  0
  5  6  1  0
  6  7  2  0
  7  2  1  0
  3  8  1  0
  4  9  1  0
  5 10  1  0
  6 11  1  0
M  END
>  <tautomer smiles>  (2) 
O=c1cc[nH]cn1

>  <Score>  (2) 
1.61

>  <Label>  (2) 
low_energy

$$$$
