
     RDKit          3D

  7  6  0  0  0  0  0  0  0  0999 V2000
   -0.6433   -0.0362   -0.0152 C   0  0  0  0  0  0  0  0  0  0  0  0
    0.8460    0.0779    0.0271 C   0  0  0  0  0  0  0  0  0  0  0  0
    1.5487   -0.8956   -0.1925 O   0  0  0  0  0  0  0  0  0  0  0  0
   -1.0438    0.6530   -0.7873 H   0  0  0  0  0  0  0  0  0  0  0  0
   -0.9522   -1.0748   -0.2607 H   0  0  0  0  0  0  0  0  0  0  0  0
   -1.0623    0.2422    0.9739 H   0  0  0  0  0  0  0  0  0  0  0  0
    1.3070    1.0333    0.2546 H   0  0  0  0  0  0  0  0  0  0  0  0
  1  2  1  0
  2  3  2  0
  1  4  1  0
  1  5  1  0
  1  6  1  0
  2  7  1  0
M  END
>  <tautomer smiles>  (1) 
CC=O

>  <Score>  (1) 
0.0

>  <Label>  (1) 
low_energy

$$$$
