
     RDKit          3D

 55 58  0  0  0  0  0  0  0  0999 V2000
   -2.0234    2.5246    1.0943 C   0  0  0  0  0  0  0  0  0  0  0  0
   -2.5563    1.1379    1.2710 C   0  0  0  0  0  0  0  0  0  0  0  0
   -3.3340    0.7602    2.3091 N   0  0  0  0  0  0  0  0  0  0  0  0
   -3.5941   -0.5368    2.2295 N   0  0  0  0  0  0  0  0  0  0  0  0
   -2.9635   -0.9829    1.1304 C   0  0  0  0  0  0  0  0  0  0  0  0
   -2.2933    0.0177    0.4929 C   0  0  0  0  0  0  0  0  0  0  0  0
   -1.5535   -0.1956   -0.8190 C   0  0  2  0  0  0  0  0  0  0  0  0
   -0.1434    0.4061   -0.6184 C   0  0  0  0  0  0  0  0  0  0  0  0
    0.7588   -0.2518    0.2453 C   0  0  0  0  0  0  0  0  0  0  0  0
    2.0325    0.2733    0.5263 C   0  0  0  0  0  0  0  0  0  0  0  0
    2.9384   -0.4229    1.4160 N   0  0  0  0  0  0  0  0  0  0  0  0
    2.5662   -1.5838    2.2124 C   0  0  0  0  0  0  0  0  0  0  0  0
    3.7619   -1.8774    3.1072 C   0  0  0  0  0  0  0  0  0  0  0  0
    4.9404   -1.1488    2.4734 C   0  0  0  0  0  0  0  0  0  0  0  0
    4.3319   -0.0498    1.6139 C   0  0  0  0  0  0  0  0  0  0  0  0
    2.4030    1.4933   -0.0629 C   0  0  0  0  0  0  0  0  0  0  0  0
    1.5272    2.1767   -0.9182 C   0  0  0  0  0  0  0  0  0  0  0  0
    1.9074    3.5245   -1.4818 C   0  0  0  0  0  0  0  0  0  0  0  0
    3.2799    3.6287   -1.6300 F   0  0  0  0  0  0  0  0  0  0  0  0
    1.3252    3.7150   -2.7232 F   0  0  0  0  0  0  0  0  0  0  0  0
    1.4709    4.5156   -0.6226 F   0  0  0  0  0  0  0  0  0  0  0  0
    0.2500    1.6491   -1.1598 C   0  0  0  0  0  0  0  0  0  0  0  0
   -2.4034    0.4677   -1.9814 C   0  0  0  0  0  0  0  0  0  0  0  0
   -3.8528   -0.0605   -2.0470 C   0  0  0  0  0  0  0  0  0  0  0  0
   -1.7732    0.3355   -3.3851 C   0  0  0  0  0  0  0  0  0  0  0  0
   -1.4230   -1.7221   -1.0976 C   0  0  0  0  0  0  0  0  0  0  0  0
   -0.4890   -2.1554   -2.1186 C   0  0  0  0  0  0  0  0  0  0  0  0
    0.2590   -2.4994   -2.9319 N   0  0  0  0  0  0  0  0  0  0  0  0
   -2.1369   -2.6588   -0.4047 C   0  0  0  0  0  0  0  0  0  0  0  0
   -2.0680   -4.0519   -0.7358 N   0  0  0  0  0  0  0  0  0  0  0  0
   -2.9499   -2.2929    0.6798 O   0  0  0  0  0  0  0  0  0  0  0  0
   -2.1985    2.8816    0.0611 H   0  0  0  0  0  0  0  0  0  0  0  0
   -0.9364    2.5368    1.3163 H   0  0  0  0  0  0  0  0  0  0  0  0
   -2.5339    3.2210    1.7918 H   0  0  0  0  0  0  0  0  0  0  0  0
   -3.6830    1.3781    3.0750 H   0  0  0  0  0  0  0  0  0  0  0  0
    0.4523   -1.1788    0.7097 H   0  0  0  0  0  0  0  0  0  0  0  0
    2.3660   -2.4482    1.5425 H   0  0  0  0  0  0  0  0  0  0  0  0
    1.6687   -1.3614    2.8298 H   0  0  0  0  0  0  0  0  0  0  0  0
    3.9541   -2.9697    3.1833 H   0  0  0  0  0  0  0  0  0  0  0  0
    3.5768   -1.4668    4.1243 H   0  0  0  0  0  0  0  0  0  0  0  0
    5.6214   -0.7304    3.2460 H   0  0  0  0  0  0  0  0  0  0  0  0
    5.5087   -1.8552    1.8288 H   0  0  0  0  0  0  0  0  0  0  0  0
    4.8609    0.0136    0.6381 H   0  0  0  0  0  0  0  0  0  0  0  0
    4.3858    0.9262    2.1433 H   0  0  0  0  0  0  0  0  0  0  0  0
    3.3676    1.9290    0.1586 H   0  0  0  0  0  0  0  0  0  0  0  0
   -0.4287    2.2318   -1.7617 H   0  0  0  0  0  0  0  0  0  0  0  0
   -2.5046    1.5515   -1.7724 H   0  0  0  0  0  0  0  0  0  0  0  0
   -4.4037    0.4371   -2.8739 H   0  0  0  0  0  0  0  0  0  0  0  0
   -3.8724   -1.1560   -2.2260 H   0  0  0  0  0  0  0  0  0  0  0  0
   -4.4029    0.1631   -1.1097 H   0  0  0  0  0  0  0  0  0  0  0  0
   -0.6791    0.5059   -3.3741 H   0  0  0  0  0  0  0  0  0  0  0  0
   -1.9632   -0.6703   -3.8156 H   0  0  0  0  0  0  0  0  0  0  0  0
   -2.2264    1.0839   -4.0697 H   0  0  0  0  0  0  0  0  0  0  0  0
   -1.5160   -4.4179   -1.5424 H   0  0  0  0  0  0  0  0  0  0  0  0
   -2.6083   -4.7400   -0.1663 H   0  0  0  0  0  0  0  0  0  0  0  0
  1  2  1  0
  2  3  1  0
  3  4  1  0
  4  5  2  0
  5  6  1  0
  6  7  1  0
  7  8  1  0
  8  9  2  0
  9 10  1  0
 10 11  1  0
 11 12  1  0
 12 13  1  0
 13 14  1  0
 14 15  1  0
 10 16  2  0
 16 17  1  0
 17 18  1  0
 18 19  1  0
 18 20  1  0
 18 21  1  0
 17 22  2  0
  7 23  1  6
 23 24  1  0
 23 25  1  0
  7 26  1  0
 26 27  1  0
 27 28  3  0
 26 29  2  0
 29 30  1  0
 29 31  1  0
  6  2  2  0
 22  8  1  0
 31  5  1  0
 15 11  1  0
  1 32  1  0
  1 33  1  0
  1 34  1  0
  3 35  1  0
  9 36  1  0
 12 37  1  0
 12 38  1  0
 13 39  1  0
 13 40  1  0
 14 41  1  0
 14 42  1  0
 15 43  1  0
 15 44  1  0
 16 45  1  0
 22 46  1  0
 23 47  1  0
 24 48  1  0
 24 49  1  0
 24 50  1  0
 25 51  1  0
 25 52  1  0
 25 53  1  0
 30 54  1  0
 30 55  1  0
M  END
>  <tautomer smiles>  (1) 
Cc1[nH]nc2c1[C@](c1cc(N3CCCC3)cc(C(F)(F)F)c1)(C(C)C)C(C#N)=C(N)O2

>  <protonation smiles>  (1) 
Cc1[nH]nc2c1[C@](c1cc(N3CCCC3)cc(C(F)(F)F)c1)(C(C)C)C(C#N)=C(N)O2

>  <Score>  (1) 
0.0

>  <Label>  (1) 
low_energy

$$$$

     RDKit          3D

 55 58  0  0  0  0  0  0  0  0999 V2000
   -2.5284    1.6997    0.6125 C   0  0  0  0  0  0  0  0  0  0  0  0
   -2.4684    0.3756    1.3080 C   0  0  0  0  0  0  0  0  0  0  0  0
   -2.9410    0.1991    2.5637 N   0  0  0  0  0  0  0  0  0  0  0  0
   -2.6772   -1.0454    2.9305 N   0  0  0  0  0  0  0  0  0  0  0  0
   -2.0328   -1.6530    1.9260 C   0  0  0  0  0  0  0  0  0  0  0  0
   -1.9004   -0.8201    0.8580 C   0  0  0  0  0  0  0  0  0  0  0  0
   -1.2119   -1.2607   -0.4347 C   0  0  2  0  0  0  0  0  0  0  0  0
   -0.1405   -0.2154   -0.8242 C   0  0  0  0  0  0  0  0  0  0  0  0
    0.6887    0.3318    0.1796 C   0  0  0  0  0  0  0  0  0  0  0  0
    1.7125    1.2469   -0.1226 C   0  0  0  0  0  0  0  0  0  0  0  0
    2.5302    1.8129    0.9301 N   0  0  0  0  0  0  0  0  0  0  0  0
    2.2532    1.6527    2.3508 C   0  0  0  0  0  0  0  0  0  0  0  0
    3.2380    2.5607    3.0732 C   0  0  0  0  0  0  0  0  0  0  0  0
    4.3373    2.8641    2.0625 C   0  0  0  0  0  0  0  0  0  0  0  0
    3.7164    2.6236    0.6939 C   0  0  0  0  0  0  0  0  0  0  0  0
    1.9314    1.5933   -1.4662 C   0  0  0  0  0  0  0  0  0  0  0  0
    1.1491    1.0408   -2.4899 C   0  0  0  0  0  0  0  0  0  0  0  0
    1.4471    1.3627   -3.9344 C   0  0  0  0  0  0  0  0  0  0  0  0
    1.9705    2.6385   -4.0565 F   0  0  0  0  0  0  0  0  0  0  0  0
    0.2941    1.2963   -4.6976 F   0  0  0  0  0  0  0  0  0  0  0  0
    2.3641    0.4514   -4.4235 F   0  0  0  0  0  0  0  0  0  0  0  0
    0.1517    0.1087   -2.1665 C   0  0  0  0  0  0  0  0  0  0  0  0
   -2.3155   -1.5292   -1.5421 C   0  0  0  0  0  0  0  0  0  0  0  0
   -3.1225   -0.2850   -1.9574 C   0  0  0  0  0  0  0  0  0  0  0  0
   -3.3105   -2.6419   -1.1447 C   0  0  0  0  0  0  0  0  0  0  0  0
   -0.4569   -2.5947   -0.1956 C   0  0  0  0  0  0  0  0  0  0  0  0
    0.4028   -3.0813   -1.2576 C   0  0  0  0  0  0  0  0  0  0  0  0
    1.0878   -3.4657   -2.1073 N   0  0  0  0  0  0  0  0  0  0  0  0
   -0.6527   -3.3623    0.9177 C   0  0  0  0  0  0  0  0  0  0  0  0
   -0.0159   -4.6372    1.0728 N   0  0  0  0  0  0  0  0  0  0  0  0
   -1.4830   -2.9242    1.9611 O   0  0  0  0  0  0  0  0  0  0  0  0
   -3.5644    1.8938    0.2665 H   0  0  0  0  0  0  0  0  0  0  0  0
   -2.2390    2.4997    1.3251 H   0  0  0  0  0  0  0  0  0  0  0  0
   -1.8358    1.7463   -0.2482 H   0  0  0  0  0  0  0  0  0  0  0  0
   -2.9019   -1.4507    3.8659 H   0  0  0  0  0  0  0  0  0  0  0  0
    0.5400    0.0267    1.2059 H   0  0  0  0  0  0  0  0  0  0  0  0
    1.2083    1.9557    2.5818 H   0  0  0  0  0  0  0  0  0  0  0  0
    2.4191    0.5938    2.6465 H   0  0  0  0  0  0  0  0  0  0  0  0
    3.6482    2.0721    3.9838 H   0  0  0  0  0  0  0  0  0  0  0  0
    2.7294    3.5068    3.3633 H   0  0  0  0  0  0  0  0  0  0  0  0
    4.7043    3.9089    2.1642 H   0  0  0  0  0  0  0  0  0  0  0  0
    5.1860    2.1614    2.2169 H   0  0  0  0  0  0  0  0  0  0  0  0
    4.4324    2.0849    0.0352 H   0  0  0  0  0  0  0  0  0  0  0  0
    3.4225    3.5901    0.2299 H   0  0  0  0  0  0  0  0  0  0  0  0
    2.7205    2.2861   -1.7245 H   0  0  0  0  0  0  0  0  0  0  0  0
   -0.3852   -0.3580   -2.9767 H   0  0  0  0  0  0  0  0  0  0  0  0
   -1.8138   -1.9094   -2.4572 H   0  0  0  0  0  0  0  0  0  0  0  0
   -3.7058   -0.5085   -2.8761 H   0  0  0  0  0  0  0  0  0  0  0  0
   -2.4715    0.5792   -2.1873 H   0  0  0  0  0  0  0  0  0  0  0  0
   -3.8447   -0.0012   -1.1658 H   0  0  0  0  0  0  0  0  0  0  0  0
   -3.8769   -2.3666   -0.2302 H   0  0  0  0  0  0  0  0  0  0  0  0
   -4.0401   -2.8135   -1.9651 H   0  0  0  0  0  0  0  0  0  0  0  0
   -2.7875   -3.6045   -0.9704 H   0  0  0  0  0  0  0  0  0  0  0  0
    0.6296   -5.0414    0.3589 H   0  0  0  0  0  0  0  0  0  0  0  0
   -0.1913   -5.1946    1.9377 H   0  0  0  0  0  0  0  0  0  0  0  0
  1  2  1  0
  2  3  2  0
  3  4  1  0
  4  5  1  0
  5  6  2  0
  6  7  1  0
  7  8  1  0
  8  9  2  0
  9 10  1  0
 10 11  1  0
 11 12  1  0
 12 13  1  0
 13 14  1  0
 14 15  1  0
 10 16  2  0
 16 17  1  0
 17 18  1  0
 18 19  1  0
 18 20  1  0
 18 21  1  0
 17 22  2  0
  7 23  1  6
 23 24  1  0
 23 25  1  0
  7 26  1  0
 26 27  1  0
 27 28  3  0
 26 29  2  0
 29 30  1  0
 29 31  1  0
  6  2  1  0
 22  8  1  0
 31  5  1  0
 15 11  1  0
  1 32  1  0
  1 33  1  0
  1 34  1  0
  4 35  1  0
  9 36  1  0
 12 37  1  0
 12 38  1  0
 13 39  1  0
 13 40  1  0
 14 41  1  0
 14 42  1  0
 15 43  1  0
 15 44  1  0
 16 45  1  0
 22 46  1  0
 23 47  1  0
 24 48  1  0
 24 49  1  0
 24 50  1  0
 25 51  1  0
 25 52  1  0
 25 53  1  0
 30 54  1  0
 30 55  1  0
M  END
>  <tautomer smiles>  (2) 
Cc1n[nH]c2c1[C@](c1cc(N3CCCC3)cc(C(F)(F)F)c1)(C(C)C)C(C#N)=C(N)O2

>  <protonation smiles>  (2) 
Cc1n[nH]c2c1[C@](c1cc(N3CCCC3)cc(C(F)(F)F)c1)(C(C)C)C(C#N)=C(N)O2

>  <Score>  (2) 
2.68

>  <Label>  (2) 
low_energy

$$$$

     RDKit          3D

 55 58  0  0  0  0  0  0  0  0999 V2000
   -3.7918   -1.9868   -0.2605 C   0  0  0  0  0  0  0  0  0  0  0  0
   -3.8231   -0.4975   -0.1301 C   0  0  0  0  0  0  0  0  0  0  0  0
   -4.7998    0.2423   -0.6990 N   0  0  0  0  0  0  0  0  0  0  0  0
   -4.5029    1.5279   -0.6256 N   0  0  0  0  0  0  0  0  0  0  0  0
   -3.3234    1.6127    0.0060 C   0  0  0  0  0  0  0  0  0  0  0  0
   -2.8444    0.3681    0.3784 C   0  0  0  0  0  0  0  0  0  0  0  0
   -1.4123    0.2042    0.9467 C   0  0  2  0  0  0  0  0  0  0  0  0
   -0.3729    0.1500   -0.2117 C   0  0  0  0  0  0  0  0  0  0  0  0
    1.0084    0.1576    0.0865 C   0  0  0  0  0  0  0  0  0  0  0  0
    1.9871    0.1261   -0.9227 C   0  0  0  0  0  0  0  0  0  0  0  0
    3.3955    0.1570   -0.5865 N   0  0  0  0  0  0  0  0  0  0  0  0
    4.4673   -0.0601   -1.5479 C   0  0  0  0  0  0  0  0  0  0  0  0
    5.7535   -0.1088   -0.7355 C   0  0  0  0  0  0  0  0  0  0  0  0
    5.4182    0.5310    0.6059 C   0  0  0  0  0  0  0  0  0  0  0  0
    3.9080    0.4126    0.7525 C   0  0  0  0  0  0  0  0  0  0  0  0
    1.5723    0.0618   -2.2624 C   0  0  0  0  0  0  0  0  0  0  0  0
    0.2122   -0.0011   -2.5933 C   0  0  0  0  0  0  0  0  0  0  0  0
   -0.2218   -0.0376   -4.0391 C   0  0  0  0  0  0  0  0  0  0  0  0
   -0.4321    1.2545   -4.4830 F   0  0  0  0  0  0  0  0  0  0  0  0
    0.7444   -0.6342   -4.8310 F   0  0  0  0  0  0  0  0  0  0  0  0
   -1.3955   -0.7586   -4.1772 F   0  0  0  0  0  0  0  0  0  0  0  0
   -0.7479    0.0647   -1.5728 C   0  0  0  0  0  0  0  0  0  0  0  0
   -1.2185   -1.0604    1.9006 C   0  0  0  0  0  0  0  0  0  0  0  0
   -0.7384   -2.3495    1.1854 C   0  0  0  0  0  0  0  0  0  0  0  0
   -2.4025   -1.3524    2.8651 C   0  0  0  0  0  0  0  0  0  0  0  0
   -1.1176    1.5358    1.7713 C   0  0  0  0  0  0  0  0  0  0  0  0
   -1.9085    1.6413    3.0111 C   0  0  0  0  0  0  0  0  0  0  0  0
   -2.5284    1.7356    3.9841 N   0  0  0  0  0  0  0  0  0  0  0  0
   -1.4393    2.7667    0.9529 C   0  0  0  0  0  0  0  0  0  0  0  0
   -0.6613    3.7998    0.9836 N   0  0  0  0  0  0  0  0  0  0  0  0
   -2.6178    2.7963    0.2022 O   0  0  0  0  0  0  0  0  0  0  0  0
   -4.7985   -2.3603   -0.5425 H   0  0  0  0  0  0  0  0  0  0  0  0
   -3.5246   -2.4710    0.6945 H   0  0  0  0  0  0  0  0  0  0  0  0
   -3.0864   -2.2740   -1.0667 H   0  0  0  0  0  0  0  0  0  0  0  0
   -5.6478   -0.1275   -1.1835 H   0  0  0  0  0  0  0  0  0  0  0  0
    1.3238    0.1604    1.1186 H   0  0  0  0  0  0  0  0  0  0  0  0
    4.5003    0.7860   -2.2683 H   0  0  0  0  0  0  0  0  0  0  0  0
    4.3168   -1.0193   -2.0896 H   0  0  0  0  0  0  0  0  0  0  0  0
    6.0540   -1.1679   -0.5754 H   0  0  0  0  0  0  0  0  0  0  0  0
    6.5787    0.4320   -1.2477 H   0  0  0  0  0  0  0  0  0  0  0  0
    5.9488    0.0239    1.4409 H   0  0  0  0  0  0  0  0  0  0  0  0
    5.7083    1.6047    0.5864 H   0  0  0  0  0  0  0  0  0  0  0  0
    3.4846    1.3572    1.1584 H   0  0  0  0  0  0  0  0  0  0  0  0
    3.6529   -0.4396    1.4193 H   0  0  0  0  0  0  0  0  0  0  0  0
    2.3069    0.0605   -3.0559 H   0  0  0  0  0  0  0  0  0  0  0  0
   -1.7865    0.0502   -1.8640 H   0  0  0  0  0  0  0  0  0  0  0  0
   -0.3646   -0.8161    2.5731 H   0  0  0  0  0  0  0  0  0  0  0  0
    0.3488   -2.2900    0.9709 H   0  0  0  0  0  0  0  0  0  0  0  0
   -0.8726   -3.2489    1.8223 H   0  0  0  0  0  0  0  0  0  0  0  0
   -1.2479   -2.5103    0.2218 H   0  0  0  0  0  0  0  0  0  0  0  0
   -3.3342   -0.8242    2.5865 H   0  0  0  0  0  0  0  0  0  0  0  0
   -2.6439   -2.4338    2.9285 H   0  0  0  0  0  0  0  0  0  0  0  0
   -2.1405   -1.0317    3.8959 H   0  0  0  0  0  0  0  0  0  0  0  0
   -0.0554    1.5818    2.0868 H   0  0  0  0  0  0  0  0  0  0  0  0
   -0.8883    4.6591    0.4358 H   0  0  0  0  0  0  0  0  0  0  0  0
  1  2  1  0
  2  3  1  0
  3  4  1  0
  4  5  2  0
  5  6  1  0
  6  7  1  0
  7  8  1  0
  8  9  2  0
  9 10  1  0
 10 11  1  0
 11 12  1  0
 12 13  1  0
 13 14  1  0
 14 15  1  0
 10 16  2  0
 16 17  1  0
 17 18  1  0
 18 19  1  0
 18 20  1  0
 18 21  1  0
 17 22  2  0
  7 23  1  1
 23 24  1  0
 23 25  1  0
  7 26  1  0
 26 27  1  0
 27 28  3  0
 26 29  1  0
 29 30  2  3
 29 31  1  0
  6  2  2  0
 22  8  1  0
 31  5  1  0
 15 11  1  0
  1 32  1  0
  1 33  1  0
  1 34  1  0
  3 35  1  0
  9 36  1  0
 12 37  1  0
 12 38  1  0
 13 39  1  0
 13 40  1  0
 14 41  1  0
 14 42  1  0
 15 43  1  0
 15 44  1  0
 16 45  1  0
 22 46  1  0
 23 47  1  0
 24 48  1  0
 24 49  1  0
 24 50  1  0
 25 51  1  0
 25 52  1  0
 25 53  1  0
 26 54  1  0
 30 55  1  0
M  END
>  <tautomer smiles>  (3) 
Cc1[nH]nc2c1[C@](c1cc(N3CCCC3)cc(C(F)(F)F)c1)(C(C)C)C(C#N)C(=N)O2

>  <protonation smiles>  (3) 
Cc1[nH]nc2c1[C@](c1cc(N3CCCC3)cc(C(F)(F)F)c1)(C(C)C)C(C#N)C(=N)O2

>  <Score>  (3) 
2.78

>  <Label>  (3) 
low_energy

$$$$
