
     RDKit          3D

 11 11  0  0  0  0  0  0  0  0999 V2000
    2.3755   -1.3712    0.0528 O   0  0  0  0  0  0  0  0  0  0  0  0
    1.2450   -0.8189    0.0290 C   0  0  0  0  0  0  0  0  0  0  0  0
    1.1348    0.6478    0.0079 C   0  0  0  0  0  0  0  0  0  0  0  0
   -0.0792    1.1994   -0.0171 C   0  0  0  0  0  0  0  0  0  0  0  0
   -1.2464    0.3650   -0.0230 N   0  0  0  0  0  0  0  0  0  0  0  0
   -1.1202   -1.0649   -0.0022 C   0  0  0  0  0  0  0  0  0  0  0  0
    0.0555   -1.6185    0.0223 N   0  0  0  0  0  0  0  0  0  0  0  0
    2.0215    1.2693    0.0126 H   0  0  0  0  0  0  0  0  0  0  0  0
   -0.1856    2.2766   -0.0329 H   0  0  0  0  0  0  0  0  0  0  0  0
   -2.1948    0.8010   -0.0426 H   0  0  0  0  0  0  0  0  0  0  0  0
   -2.0060   -1.6857   -0.0068 H   0  0  0  0  0  0  0  0  0  0  0  0
  1  2  2  0
  2  3  1  0
  3  4  2  0
  4  5  1  0
  5  6  1  0
  6  7  2  0
  7  2  1  0
  3  8  1  0
  4  9  1  0
  5 10  1  0
  6 11  1  0
M  END
>  <tautomer smiles>  (1) 
O=c1cc[nH]cn1

>  <Score>  (1) 
0.0

>  <Label>  (1) 
low_energy

$$$$

     RDKit          3D

 11 11  0  0  0  0  0  0  0  0999 V2000
   -0.3993    2.4153    0.0648 O   0  0  0  0  0  0  0  0  0  0  0  0
   -0.1987    1.1728    0.0317 C   0  0  0  0  0  0  0  0  0  0  0  0
    1.1645    0.6351   -0.0402 C   0  0  0  0  0  0  0  0  0  0  0  0
    1.3312   -0.6909   -0.0734 C   0  0  0  0  0  0  0  0  0  0  0  0
    0.2001   -1.5808   -0.0397 N   0  0  0  0  0  0  0  0  0  0  0  0
   -1.0266   -1.1493    0.0240 C   0  0  0  0  0  0  0  0  0  0  0  0
   -1.2963    0.2573    0.0634 N   0  0  0  0  0  0  0  0  0  0  0  0
    2.0200    1.2983   -0.0659 H   0  0  0  0  0  0  0  0  0  0  0  0
    2.3296   -1.1046   -0.1264 H   0  0  0  0  0  0  0  0  0  0  0  0
   -1.8443   -1.8571    0.0471 H   0  0  0  0  0  0  0  0  0  0  0  0
   -2.2801    0.6039    0.1145 H   0  0  0  0  0  0  0  0  0  0  0  0
  1  2  2  0
  2  3  1  0
  3  4  2  0
  4  5  1  0
  5  6  2  0
  6  7  1  0
  7  2  1  0
  3  8  1  0
  4  9  1  0
  6 10  1  0
  7 11  1  0
M  END
>  <tautomer smiles>  (2) 
O=c1ccnc[nH]1

>  <Score>  (2) 
0.18

>  <Label>  (2) 
low_energy

$$$$
