
     RDKit          3D

 43 47  0  0  0  0  0  0  0  0999 V2000
   -4.9600   -2.8351    1.8048 C   0  0  0  0  0  0  0  0  0  0  0  0
   -5.0810   -2.0578    0.6179 O   0  0  0  0  0  0  0  0  0  0  0  0
   -4.1206   -1.1370    0.1706 C   0  0  0  0  0  0  0  0  0  0  0  0
   -2.9190   -0.9063    0.8836 C   0  0  0  0  0  0  0  0  0  0  0  0
   -2.0109    0.0269    0.3894 C   0  0  0  0  0  0  0  0  0  0  0  0
   -2.2769    0.7174   -0.7779 C   0  0  0  0  0  0  0  0  0  0  0  0
   -3.4337    0.5014   -1.5179 C   0  0  0  0  0  0  0  0  0  0  0  0
   -4.3768   -0.4343   -1.0323 C   0  0  0  0  0  0  0  0  0  0  0  0
   -5.5755   -0.6982   -1.7131 O   0  0  0  0  0  0  0  0  0  0  0  0
   -5.9648   -0.0704   -2.9305 C   0  0  0  0  0  0  0  0  0  0  0  0
   -1.1432    1.5668   -1.0480 C   0  0  0  0  0  0  0  0  0  0  0  0
   -0.5696    1.8421   -2.2315 N   0  0  0  0  0  0  0  0  0  0  0  0
    0.7369    1.9112   -2.0056 N   0  0  0  0  0  0  0  0  0  0  0  0
    1.0011    1.5807   -0.7173 C   0  0  0  0  0  0  0  0  0  0  0  0
    2.3502    1.3137   -0.1628 C   0  0  0  0  0  0  0  0  0  0  0  0
    3.4328    1.0234   -1.0096 C   0  0  0  0  0  0  0  0  0  0  0  0
    4.7024    0.7720   -0.4807 C   0  0  0  0  0  0  0  0  0  0  0  0
    4.9181    0.8076    0.9080 C   0  0  0  0  0  0  0  0  0  0  0  0
    6.2571    0.5438    1.4879 C   0  0  0  0  0  0  0  0  0  0  0  0
    6.5276    0.5562    2.8081 N   0  0  0  0  0  0  0  0  0  0  0  0
    7.8198    0.2764    2.9005 N   0  0  0  0  0  0  0  0  0  0  0  0
    8.3300    0.0980    1.6919 N   0  0  0  0  0  0  0  0  0  0  0  0
    7.3749    0.2596    0.7944 N   0  0  0  0  0  0  0  0  0  0  0  0
    3.8349    1.1001    1.7536 C   0  0  0  0  0  0  0  0  0  0  0  0
    2.5661    1.3505    1.2245 C   0  0  0  0  0  0  0  0  0  0  0  0
   -0.2098    1.3806   -0.0797 C   0  0  0  0  0  0  0  0  0  0  0  0
   -0.6507    0.3722    0.9418 C   0  0  0  0  0  0  0  0  0  0  0  0
   -5.8619   -3.4713    1.9148 H   0  0  0  0  0  0  0  0  0  0  0  0
   -4.8837   -2.1699    2.6908 H   0  0  0  0  0  0  0  0  0  0  0  0
   -4.0670   -3.4922    1.7414 H   0  0  0  0  0  0  0  0  0  0  0  0
   -2.6857   -1.4418    1.7936 H   0  0  0  0  0  0  0  0  0  0  0  0
   -3.5906    1.0486   -2.4374 H   0  0  0  0  0  0  0  0  0  0  0  0
   -6.9537   -0.4649   -3.2416 H   0  0  0  0  0  0  0  0  0  0  0  0
   -6.0497    1.0271   -2.7839 H   0  0  0  0  0  0  0  0  0  0  0  0
   -5.2257   -0.2939   -3.7286 H   0  0  0  0  0  0  0  0  0  0  0  0
    1.4369    2.1061   -2.7544 H   0  0  0  0  0  0  0  0  0  0  0  0
    3.3013    0.9699   -2.0818 H   0  0  0  0  0  0  0  0  0  0  0  0
    5.5063    0.5470   -1.1667 H   0  0  0  0  0  0  0  0  0  0  0  0
    7.5084    0.1745   -0.2364 H   0  0  0  0  0  0  0  0  0  0  0  0
    3.9675    1.1392    2.8277 H   0  0  0  0  0  0  0  0  0  0  0  0
    1.7571    1.5882    1.9030 H   0  0  0  0  0  0  0  0  0  0  0  0
   -0.7314    0.8330    1.9484 H   0  0  0  0  0  0  0  0  0  0  0  0
    0.0121   -0.5193    0.9411 H   0  0  0  0  0  0  0  0  0  0  0  0
  1  2  1  0
  2  3  1  0
  3  4  2  0
  4  5  1  0
  5  6  2  0
  6  7  1  0
  7  8  2  0
  8  9  1  0
  9 10  1  0
  6 11  1  0
 11 12  2  0
 12 13  1  0
 13 14  1  0
 14 15  1  0
 15 16  2  0
 16 17  1  0
 17 18  2  0
 18 19  1  0
 19 20  2  0
 20 21  1  0
 21 22  2  0
 22 23  1  0
 18 24  1  0
 24 25  2  0
 14 26  2  0
 26 27  1  0
  8  3  1  0
 26 11  1  0
 27  5  1  0
 25 15  1  0
 23 19  1  0
  1 28  1  0
  1 29  1  0
  1 30  1  0
  4 31  1  0
  7 32  1  0
 10 33  1  0
 10 34  1  0
 10 35  1  0
 13 36  1  0
 16 37  1  0
 17 38  1  0
 23 39  1  0
 24 40  1  0
 25 41  1  0
 27 42  1  0
 27 43  1  0
M  END
>  <tautomer smiles>  (1) 
COc1cc2c(cc1OC)-c1n[nH]c(-c3ccc(-c4nnn[nH]4)cc3)c1C2

>  <Score>  (1) 
0.0

>  <Label>  (1) 
low_energy

$$$$

     RDKit          3D

 43 47  0  0  0  0  0  0  0  0999 V2000
    5.3647   -2.6803    0.1143 C   0  0  0  0  0  0  0  0  0  0  0  0
    5.3590   -1.2753   -0.1165 O   0  0  0  0  0  0  0  0  0  0  0  0
    4.2278   -0.4542    0.0120 C   0  0  0  0  0  0  0  0  0  0  0  0
    2.9659   -0.9757    0.3874 C   0  0  0  0  0  0  0  0  0  0  0  0
    1.8850   -0.1051    0.5042 C   0  0  0  0  0  0  0  0  0  0  0  0
    2.0394    1.2450    0.2583 C   0  0  0  0  0  0  0  0  0  0  0  0
    3.2561    1.7909   -0.1347 C   0  0  0  0  0  0  0  0  0  0  0  0
    4.3722    0.9299   -0.2517 C   0  0  0  0  0  0  0  0  0  0  0  0
    5.6376    1.4057   -0.6294 O   0  0  0  0  0  0  0  0  0  0  0  0
    5.9299    2.7673   -0.9259 C   0  0  0  0  0  0  0  0  0  0  0  0
    0.7473    1.8670    0.4186 C   0  0  0  0  0  0  0  0  0  0  0  0
    0.1870    2.8258   -0.3333 N   0  0  0  0  0  0  0  0  0  0  0  0
   -1.0937    2.5252   -0.5037 N   0  0  0  0  0  0  0  0  0  0  0  0
   -1.3418    1.3497    0.1255 C   0  0  0  0  0  0  0  0  0  0  0  0
   -2.6162    0.6044    0.0060 C   0  0  0  0  0  0  0  0  0  0  0  0
   -2.9003   -0.4823    0.8497 C   0  0  0  0  0  0  0  0  0  0  0  0
   -4.1075   -1.1775    0.7322 C   0  0  0  0  0  0  0  0  0  0  0  0
   -5.0605   -0.7971   -0.2289 C   0  0  0  0  0  0  0  0  0  0  0  0
   -6.3461   -1.5223   -0.3696 C   0  0  0  0  0  0  0  0  0  0  0  0
   -7.3054   -1.1996   -1.2595 N   0  0  0  0  0  0  0  0  0  0  0  0
   -8.2739   -2.0824   -1.0616 N   0  0  0  0  0  0  0  0  0  0  0  0
   -7.9321   -2.9169   -0.0922 N   0  0  0  0  0  0  0  0  0  0  0  0
   -6.7340   -2.5879    0.3551 N   0  0  0  0  0  0  0  0  0  0  0  0
   -4.7793    0.2972   -1.0645 C   0  0  0  0  0  0  0  0  0  0  0  0
   -3.5725    0.9920   -0.9462 C   0  0  0  0  0  0  0  0  0  0  0  0
   -0.1700    0.9148    0.7288 C   0  0  0  0  0  0  0  0  0  0  0  0
    0.4515   -0.4511    0.8160 C   0  0  0  0  0  0  0  0  0  0  0  0
    6.3886   -3.0714   -0.0558 H   0  0  0  0  0  0  0  0  0  0  0  0
    4.6698   -3.1856   -0.5893 H   0  0  0  0  0  0  0  0  0  0  0  0
    5.0713   -2.8962    1.1634 H   0  0  0  0  0  0  0  0  0  0  0  0
    2.8193   -2.0304    0.5756 H   0  0  0  0  0  0  0  0  0  0  0  0
    3.3265    2.8508   -0.3375 H   0  0  0  0  0  0  0  0  0  0  0  0
    7.0028    2.8580   -1.1922 H   0  0  0  0  0  0  0  0  0  0  0  0
    5.7288    3.4032   -0.0380 H   0  0  0  0  0  0  0  0  0  0  0  0
    5.3194    3.1099   -1.7880 H   0  0  0  0  0  0  0  0  0  0  0  0
    0.6838    3.5908   -0.8409 H   0  0  0  0  0  0  0  0  0  0  0  0
   -2.1981   -0.7887    1.6133 H   0  0  0  0  0  0  0  0  0  0  0  0
   -4.2868   -2.0067    1.4014 H   0  0  0  0  0  0  0  0  0  0  0  0
   -6.2283   -3.0858    1.1193 H   0  0  0  0  0  0  0  0  0  0  0  0
   -5.4931    0.6182   -1.8129 H   0  0  0  0  0  0  0  0  0  0  0  0
   -3.3853    1.8292   -1.6072 H   0  0  0  0  0  0  0  0  0  0  0  0
    0.3548   -0.8684    1.8400 H   0  0  0  0  0  0  0  0  0  0  0  0
    0.0364   -1.1344    0.0447 H   0  0  0  0  0  0  0  0  0  0  0  0
  1  2  1  0
  2  3  1  0
  3  4  2  0
  4  5  1  0
  5  6  2  0
  6  7  1  0
  7  8  2  0
  8  9  1  0
  9 10  1  0
  6 11  1  0
 11 12  1  0
 12 13  1  0
 13 14  2  0
 14 15  1  0
 15 16  2  0
 16 17  1  0
 17 18  2  0
 18 19  1  0
 19 20  2  0
 20 21  1  0
 21 22  2  0
 22 23  1  0
 18 24  1  0
 24 25  2  0
 14 26  1  0
 26 27  1  0
  8  3  1  0
 26 11  2  0
 27  5  1  0
 25 15  1  0
 23 19  1  0
  1 28  1  0
  1 29  1  0
  1 30  1  0
  4 31  1  0
  7 32  1  0
 10 33  1  0
 10 34  1  0
 10 35  1  0
 12 36  1  0
 16 37  1  0
 17 38  1  0
 23 39  1  0
 24 40  1  0
 25 41  1  0
 27 42  1  0
 27 43  1  0
M  END
>  <tautomer smiles>  (2) 
COc1cc2c(cc1OC)-c1[nH]nc(-c3ccc(-c4nnn[nH]4)cc3)c1C2

>  <Score>  (2) 
0.09

>  <Label>  (2) 
low_energy

$$$$

     RDKit          3D

 43 47  0  0  0  0  0  0  0  0999 V2000
   -4.9863    3.3975   -0.7647 C   0  0  0  0  0  0  0  0  0  0  0  0
   -5.1937    2.0714   -0.2894 O   0  0  0  0  0  0  0  0  0  0  0  0
   -4.2080    1.0723   -0.2687 C   0  0  0  0  0  0  0  0  0  0  0  0
   -2.8905    1.3142   -0.7279 C   0  0  0  0  0  0  0  0  0  0  0  0
   -1.9618    0.2771   -0.6875 C   0  0  0  0  0  0  0  0  0  0  0  0
   -2.3190   -0.9686   -0.2071 C   0  0  0  0  0  0  0  0  0  0  0  0
   -3.5951   -1.2379    0.2742 C   0  0  0  0  0  0  0  0  0  0  0  0
   -4.5596   -0.2040    0.2350 C   0  0  0  0  0  0  0  0  0  0  0  0
   -5.8735   -0.4002    0.6883 O   0  0  0  0  0  0  0  0  0  0  0  0
   -6.3671   -1.6255    1.2197 C   0  0  0  0  0  0  0  0  0  0  0  0
   -1.1446   -1.8045   -0.2518 C   0  0  0  0  0  0  0  0  0  0  0  0
   -0.7335   -2.7151    0.6466 N   0  0  0  0  0  0  0  0  0  0  0  0
    0.5906   -2.6264    0.6882 N   0  0  0  0  0  0  0  0  0  0  0  0
    1.0099   -1.6017   -0.0948 C   0  0  0  0  0  0  0  0  0  0  0  0
    2.3851   -1.0477   -0.1137 C   0  0  0  0  0  0  0  0  0  0  0  0
    2.8182   -0.2627   -1.1959 C   0  0  0  0  0  0  0  0  0  0  0  0
    4.1131    0.2624   -1.2205 C   0  0  0  0  0  0  0  0  0  0  0  0
    5.0025    0.0129   -0.1633 C   0  0  0  0  0  0  0  0  0  0  0  0
    6.3716    0.5687   -0.1885 C   0  0  0  0  0  0  0  0  0  0  0  0
    7.2903    0.3798    0.7812 N   0  0  0  0  0  0  0  0  0  0  0  0
    8.3615    1.0380    0.3696 N   0  0  0  0  0  0  0  0  0  0  0  0
    8.1017    1.6001   -0.7977 N   0  0  0  0  0  0  0  0  0  0  0  0
    6.8668    1.3313   -1.1834 N   0  0  0  0  0  0  0  0  0  0  0  0
    4.5725   -0.7725    0.9183 C   0  0  0  0  0  0  0  0  0  0  0  0
    3.2775   -1.2985    0.9427 C   0  0  0  0  0  0  0  0  0  0  0  0
   -0.1018   -1.0778   -0.7292 C   0  0  0  0  0  0  0  0  0  0  0  0
   -0.4996    0.3335   -1.0529 C   0  0  0  0  0  0  0  0  0  0  0  0
   -5.9320    3.9691   -0.6684 H   0  0  0  0  0  0  0  0  0  0  0  0
   -4.6902    3.3777   -1.8349 H   0  0  0  0  0  0  0  0  0  0  0  0
   -4.2031    3.9017   -0.1601 H   0  0  0  0  0  0  0  0  0  0  0  0
   -2.5862    2.2833   -1.0989 H   0  0  0  0  0  0  0  0  0  0  0  0
   -3.8244   -2.2213    0.6613 H   0  0  0  0  0  0  0  0  0  0  0  0
   -5.7955   -1.9045    2.1300 H   0  0  0  0  0  0  0  0  0  0  0  0
   -7.4338   -1.4973    1.4955 H   0  0  0  0  0  0  0  0  0  0  0  0
   -6.2908   -2.4302    0.4583 H   0  0  0  0  0  0  0  0  0  0  0  0
    1.1837   -3.2161    1.3121 H   0  0  0  0  0  0  0  0  0  0  0  0
    2.1610   -0.0659   -2.0330 H   0  0  0  0  0  0  0  0  0  0  0  0
    4.4186    0.8614   -2.0694 H   0  0  0  0  0  0  0  0  0  0  0  0
    8.7797    2.1780   -1.3412 H   0  0  0  0  0  0  0  0  0  0  0  0
    5.2362   -0.9782    1.7489 H   0  0  0  0  0  0  0  0  0  0  0  0
    2.9750   -1.8844    1.7999 H   0  0  0  0  0  0  0  0  0  0  0  0
   -0.3639    0.5485   -2.1334 H   0  0  0  0  0  0  0  0  0  0  0  0
    0.0387    1.0621   -0.4099 H   0  0  0  0  0  0  0  0  0  0  0  0
  1  2  1  0
  2  3  1  0
  3  4  2  0
  4  5  1  0
  5  6  2  0
  6  7  1  0
  7  8  2  0
  8  9  1  0
  9 10  1  0
  6 11  1  0
 11 12  2  0
 12 13  1  0
 13 14  1  0
 14 15  1  0
 15 16  2  0
 16 17  1  0
 17 18  2  0
 18 19  1  0
 19 20  1  0
 20 21  2  0
 21 22  1  0
 22 23  1  0
 18 24  1  0
 24 25  2  0
 14 26  2  0
 26 27  1  0
  8  3  1  0
 26 11  1  0
 27  5  1  0
 25 15  1  0
 23 19  2  0
  1 28  1  0
  1 29  1  0
  1 30  1  0
  4 31  1  0
  7 32  1  0
 10 33  1  0
 10 34  1  0
 10 35  1  0
 13 36  1  0
 16 37  1  0
 17 38  1  0
 22 39  1  0
 24 40  1  0
 25 41  1  0
 27 42  1  0
 27 43  1  0
M  END
>  <tautomer smiles>  (3) 
COc1cc2c(cc1OC)-c1n[nH]c(-c3ccc(-c4nn[nH]n4)cc3)c1C2

>  <Score>  (3) 
2.67

>  <Label>  (3) 
low_energy

$$$$

     RDKit          3D

 43 47  0  0  0  0  0  0  0  0999 V2000
   -4.8748    0.9727    3.4482 C   0  0  0  0  0  0  0  0  0  0  0  0
   -5.1161    0.5962    2.0963 O   0  0  0  0  0  0  0  0  0  0  0  0
   -4.1263    0.1452    1.2091 C   0  0  0  0  0  0  0  0  0  0  0  0
   -2.7700    0.0308    1.5997 C   0  0  0  0  0  0  0  0  0  0  0  0
   -1.8387   -0.4306    0.6725 C   0  0  0  0  0  0  0  0  0  0  0  0
   -2.2297   -0.7715   -0.6073 C   0  0  0  0  0  0  0  0  0  0  0  0
   -3.5470   -0.6511   -1.0352 C   0  0  0  0  0  0  0  0  0  0  0  0
   -4.5144   -0.1936   -0.1102 C   0  0  0  0  0  0  0  0  0  0  0  0
   -5.8669   -0.0582   -0.4602 O   0  0  0  0  0  0  0  0  0  0  0  0
   -6.3996   -0.3589   -1.7461 C   0  0  0  0  0  0  0  0  0  0  0  0
   -1.0468   -1.1672   -1.3328 C   0  0  0  0  0  0  0  0  0  0  0  0
   -0.7132   -0.8799   -2.5995 N   0  0  0  0  0  0  0  0  0  0  0  0
    0.5809   -0.5903   -2.6332 N   0  0  0  0  0  0  0  0  0  0  0  0
    1.0673   -0.6698   -1.3697 C   0  0  0  0  0  0  0  0  0  0  0  0
    2.4314   -0.2411   -0.9838 C   0  0  0  0  0  0  0  0  0  0  0  0
    2.9564   -0.5526    0.2822 C   0  0  0  0  0  0  0  0  0  0  0  0
    4.2465   -0.1467    0.6353 C   0  0  0  0  0  0  0  0  0  0  0  0
    5.0400    0.5735   -0.2722 C   0  0  0  0  0  0  0  0  0  0  0  0
    6.4037    1.0030    0.1015 C   0  0  0  0  0  0  0  0  0  0  0  0
    7.2344    1.6948   -0.7057 N   0  0  0  0  0  0  0  0  0  0  0  0
    8.3349    1.8710    0.0071 N   0  0  0  0  0  0  0  0  0  0  0  0
    8.1764    1.3103    1.1931 N   0  0  0  0  0  0  0  0  0  0  0  0
    6.9813    0.7557    1.2939 N   0  0  0  0  0  0  0  0  0  0  0  0
    4.5207    0.8762   -1.5412 C   0  0  0  0  0  0  0  0  0  0  0  0
    3.2307    0.4699   -1.8945 C   0  0  0  0  0  0  0  0  0  0  0  0
    0.0352   -1.0452   -0.5210 C   0  0  0  0  0  0  0  0  0  0  0  0
   -0.3473   -0.5591    0.8489 C   0  0  0  0  0  0  0  0  0  0  0  0
   -4.1675    1.8279    3.4859 H   0  0  0  0  0  0  0  0  0  0  0  0
   -4.4649    0.1115    4.0170 H   0  0  0  0  0  0  0  0  0  0  0  0
   -5.8323    1.2829    3.9144 H   0  0  0  0  0  0  0  0  0  0  0  0
   -2.4392    0.3009    2.5931 H   0  0  0  0  0  0  0  0  0  0  0  0
   -3.8047   -0.9095   -2.0531 H   0  0  0  0  0  0  0  0  0  0  0  0
   -7.4913   -0.1626   -1.7411 H   0  0  0  0  0  0  0  0  0  0  0  0
   -6.2318   -1.4297   -1.9879 H   0  0  0  0  0  0  0  0  0  0  0  0
   -5.9258    0.2861   -2.5160 H   0  0  0  0  0  0  0  0  0  0  0  0
   -1.3675   -0.7414   -3.4010 H   0  0  0  0  0  0  0  0  0  0  0  0
    2.3788   -1.1233    0.9967 H   0  0  0  0  0  0  0  0  0  0  0  0
    4.6242   -0.4011    1.6178 H   0  0  0  0  0  0  0  0  0  0  0  0
    8.8972    1.3062    1.9478 H   0  0  0  0  0  0  0  0  0  0  0  0
    5.1113    1.4275   -2.2623 H   0  0  0  0  0  0  0  0  0  0  0  0
    2.8563    0.7199   -2.8793 H   0  0  0  0  0  0  0  0  0  0  0  0
    0.1082    0.4299    1.0690 H   0  0  0  0  0  0  0  0  0  0  0  0
   -0.1001   -1.3150    1.6234 H   0  0  0  0  0  0  0  0  0  0  0  0
  1  2  1  0
  2  3  1  0
  3  4  2  0
  4  5  1  0
  5  6  2  0
  6  7  1  0
  7  8  2  0
  8  9  1  0
  9 10  1  0
  6 11  1  0
 11 12  1  0
 12 13  1  0
 13 14  2  0
 14 15  1  0
 15 16  2  0
 16 17  1  0
 17 18  2  0
 18 19  1  0
 19 20  1  0
 20 21  2  0
 21 22  1  0
 22 23  1  0
 18 24  1  0
 24 25  2  0
 14 26  1  0
 26 27  1  0
  8  3  1  0
 26 11  2  0
 27  5  1  0
 25 15  1  0
 23 19  2  0
  1 28  1  0
  1 29  1  0
  1 30  1  0
  4 31  1  0
  7 32  1  0
 10 33  1  0
 10 34  1  0
 10 35  1  0
 12 36  1  0
 16 37  1  0
 17 38  1  0
 22 39  1  0
 24 40  1  0
 25 41  1  0
 27 42  1  0
 27 43  1  0
M  END
>  <tautomer smiles>  (4) 
COc1cc2c(cc1OC)-c1[nH]nc(-c3ccc(-c4nn[nH]n4)cc3)c1C2

>  <Score>  (4) 
2.76

>  <Label>  (4) 
low_energy

$$$$
